
---------- Begin Simulation Statistics ----------
simSeconds                                   0.124536                       # Number of seconds simulated (Second)
simTicks                                 124535975500                       # Number of ticks simulated (Tick)
finalTick                                125567122000                       # Number of ticks from beginning of simulation (restored from checkpoints and never reset) (Tick)
simFreq                                  1000000000000                       # The number of ticks per simulated second ((Tick/Second))
hostSeconds                                    168.35                       # Real time elapsed on the host (Second)
hostTickRate                                739760831                       # The number of ticks simulated per host second (ticks/s) ((Tick/Second))
hostMemory                                    9783688                       # Number of bytes of host memory used (Byte)
simInsts                                     11000001                       # Number of instructions simulated (Count)
simOps                                       21759601                       # Number of ops (including micro ops) simulated (Count)
hostInstRate                                    65341                       # Simulator instruction rate (inst/s) ((Count/Second))
hostOpRate                                     129255                       # Simulator op (including micro ops) rate (op/s) ((Count/Second))
system.clk_domain.clock                           500                       # Clock period in ticks (Tick)
system.cpu.numCycles                                0                       # Number of cpu cycles simulated (Cycle)
system.cpu.cpi                                    nan                       # CPI: cycles per instruction (core level) ((Cycle/Count))
system.cpu.ipc                                    nan                       # IPC: instructions per cycle (core level) ((Count/Cycle))
system.cpu.numWorkItemsStarted                      0                       # Number of work items this cpu started (Count)
system.cpu.numWorkItemsCompleted                    0                       # Number of work items this cpu completed (Count)
system.cpu.commitStats0.numOps                      0                       # Number of ops (including micro ops) committed (thread level) (Count)
system.cpu.commitStats0.numInstsNotNOP              0                       # Number of instructions committed excluding NOPs or prefetches (Count)
system.cpu.commitStats0.numOpsNotNOP                0                       # Number of Ops (including micro ops) Simulated (Count)
system.cpu.commitStats0.cpi                       nan                       # CPI: cycles per instruction (thread level) ((Cycle/Count))
system.cpu.commitStats0.ipc                       nan                       # IPC: instructions per cycle (thread level) ((Count/Cycle))
system.cpu.commitStats0.numMemRefs                  0                       # Number of memory references committed (Count)
system.cpu.commitStats0.numFpInsts                  0                       # Number of float instructions (Count)
system.cpu.commitStats0.numIntInsts                 0                       # Number of integer instructions (Count)
system.cpu.commitStats0.numLoadInsts                0                       # Number of load instructions (Count)
system.cpu.commitStats0.numStoreInsts               0                       # Number of store instructions (Count)
system.cpu.commitStats0.numVecInsts                 0                       # Number of vector instructions (Count)
system.cpu.commitStats0.committedInstType::No_OpClass            0                       # Class of committed instruction. (Count)
system.cpu.commitStats0.committedInstType::IntAlu            0                       # Class of committed instruction. (Count)
system.cpu.commitStats0.committedInstType::IntMult            0                       # Class of committed instruction. (Count)
system.cpu.commitStats0.committedInstType::IntDiv            0                       # Class of committed instruction. (Count)
system.cpu.commitStats0.committedInstType::FloatAdd            0                       # Class of committed instruction. (Count)
system.cpu.commitStats0.committedInstType::FloatCmp            0                       # Class of committed instruction. (Count)
system.cpu.commitStats0.committedInstType::FloatCvt            0                       # Class of committed instruction. (Count)
system.cpu.commitStats0.committedInstType::FloatMult            0                       # Class of committed instruction. (Count)
system.cpu.commitStats0.committedInstType::FloatMultAcc            0                       # Class of committed instruction. (Count)
system.cpu.commitStats0.committedInstType::FloatDiv            0                       # Class of committed instruction. (Count)
system.cpu.commitStats0.committedInstType::FloatMisc            0                       # Class of committed instruction. (Count)
system.cpu.commitStats0.committedInstType::FloatSqrt            0                       # Class of committed instruction. (Count)
system.cpu.commitStats0.committedInstType::SimdAdd            0                       # Class of committed instruction. (Count)
system.cpu.commitStats0.committedInstType::SimdAddAcc            0                       # Class of committed instruction. (Count)
system.cpu.commitStats0.committedInstType::SimdAlu            0                       # Class of committed instruction. (Count)
system.cpu.commitStats0.committedInstType::SimdCmp            0                       # Class of committed instruction. (Count)
system.cpu.commitStats0.committedInstType::SimdCvt            0                       # Class of committed instruction. (Count)
system.cpu.commitStats0.committedInstType::SimdMisc            0                       # Class of committed instruction. (Count)
system.cpu.commitStats0.committedInstType::SimdMult            0                       # Class of committed instruction. (Count)
system.cpu.commitStats0.committedInstType::SimdMultAcc            0                       # Class of committed instruction. (Count)
system.cpu.commitStats0.committedInstType::SimdMatMultAcc            0                       # Class of committed instruction. (Count)
system.cpu.commitStats0.committedInstType::SimdShift            0                       # Class of committed instruction. (Count)
system.cpu.commitStats0.committedInstType::SimdShiftAcc            0                       # Class of committed instruction. (Count)
system.cpu.commitStats0.committedInstType::SimdDiv            0                       # Class of committed instruction. (Count)
system.cpu.commitStats0.committedInstType::SimdSqrt            0                       # Class of committed instruction. (Count)
system.cpu.commitStats0.committedInstType::SimdFloatAdd            0                       # Class of committed instruction. (Count)
system.cpu.commitStats0.committedInstType::SimdFloatAlu            0                       # Class of committed instruction. (Count)
system.cpu.commitStats0.committedInstType::SimdFloatCmp            0                       # Class of committed instruction. (Count)
system.cpu.commitStats0.committedInstType::SimdFloatCvt            0                       # Class of committed instruction. (Count)
system.cpu.commitStats0.committedInstType::SimdFloatDiv            0                       # Class of committed instruction. (Count)
system.cpu.commitStats0.committedInstType::SimdFloatMisc            0                       # Class of committed instruction. (Count)
system.cpu.commitStats0.committedInstType::SimdFloatMult            0                       # Class of committed instruction. (Count)
system.cpu.commitStats0.committedInstType::SimdFloatMultAcc            0                       # Class of committed instruction. (Count)
system.cpu.commitStats0.committedInstType::SimdFloatMatMultAcc            0                       # Class of committed instruction. (Count)
system.cpu.commitStats0.committedInstType::SimdFloatSqrt            0                       # Class of committed instruction. (Count)
system.cpu.commitStats0.committedInstType::SimdReduceAdd            0                       # Class of committed instruction. (Count)
system.cpu.commitStats0.committedInstType::SimdReduceAlu            0                       # Class of committed instruction. (Count)
system.cpu.commitStats0.committedInstType::SimdReduceCmp            0                       # Class of committed instruction. (Count)
system.cpu.commitStats0.committedInstType::SimdFloatReduceAdd            0                       # Class of committed instruction. (Count)
system.cpu.commitStats0.committedInstType::SimdFloatReduceCmp            0                       # Class of committed instruction. (Count)
system.cpu.commitStats0.committedInstType::SimdAes            0                       # Class of committed instruction. (Count)
system.cpu.commitStats0.committedInstType::SimdAesMix            0                       # Class of committed instruction. (Count)
system.cpu.commitStats0.committedInstType::SimdSha1Hash            0                       # Class of committed instruction. (Count)
system.cpu.commitStats0.committedInstType::SimdSha1Hash2            0                       # Class of committed instruction. (Count)
system.cpu.commitStats0.committedInstType::SimdSha256Hash            0                       # Class of committed instruction. (Count)
system.cpu.commitStats0.committedInstType::SimdSha256Hash2            0                       # Class of committed instruction. (Count)
system.cpu.commitStats0.committedInstType::SimdShaSigma2            0                       # Class of committed instruction. (Count)
system.cpu.commitStats0.committedInstType::SimdShaSigma3            0                       # Class of committed instruction. (Count)
system.cpu.commitStats0.committedInstType::SimdPredAlu            0                       # Class of committed instruction. (Count)
system.cpu.commitStats0.committedInstType::Matrix            0                       # Class of committed instruction. (Count)
system.cpu.commitStats0.committedInstType::MatrixMov            0                       # Class of committed instruction. (Count)
system.cpu.commitStats0.committedInstType::MatrixOP            0                       # Class of committed instruction. (Count)
system.cpu.commitStats0.committedInstType::MemRead            0                       # Class of committed instruction. (Count)
system.cpu.commitStats0.committedInstType::MemWrite            0                       # Class of committed instruction. (Count)
system.cpu.commitStats0.committedInstType::FloatMemRead            0                       # Class of committed instruction. (Count)
system.cpu.commitStats0.committedInstType::FloatMemWrite            0                       # Class of committed instruction. (Count)
system.cpu.commitStats0.committedInstType::IprAccess            0                       # Class of committed instruction. (Count)
system.cpu.commitStats0.committedInstType::InstPrefetch            0                       # Class of committed instruction. (Count)
system.cpu.commitStats0.committedInstType::VectorUnitStrideLoad            0                       # Class of committed instruction. (Count)
system.cpu.commitStats0.committedInstType::VectorUnitStrideStore            0                       # Class of committed instruction. (Count)
system.cpu.commitStats0.committedInstType::VectorUnitStrideMaskLoad            0                       # Class of committed instruction. (Count)
system.cpu.commitStats0.committedInstType::VectorUnitStrideMaskStore            0                       # Class of committed instruction. (Count)
system.cpu.commitStats0.committedInstType::VectorStridedLoad            0                       # Class of committed instruction. (Count)
system.cpu.commitStats0.committedInstType::VectorStridedStore            0                       # Class of committed instruction. (Count)
system.cpu.commitStats0.committedInstType::VectorIndexedLoad            0                       # Class of committed instruction. (Count)
system.cpu.commitStats0.committedInstType::VectorIndexedStore            0                       # Class of committed instruction. (Count)
system.cpu.commitStats0.committedInstType::VectorUnitStrideFaultOnlyFirstLoad            0                       # Class of committed instruction. (Count)
system.cpu.commitStats0.committedInstType::VectorWholeRegisterLoad            0                       # Class of committed instruction. (Count)
system.cpu.commitStats0.committedInstType::VectorWholeRegisterStore            0                       # Class of committed instruction. (Count)
system.cpu.commitStats0.committedInstType::VectorIntegerArith            0                       # Class of committed instruction. (Count)
system.cpu.commitStats0.committedInstType::VectorFloatArith            0                       # Class of committed instruction. (Count)
system.cpu.commitStats0.committedInstType::VectorFloatConvert            0                       # Class of committed instruction. (Count)
system.cpu.commitStats0.committedInstType::VectorIntegerReduce            0                       # Class of committed instruction. (Count)
system.cpu.commitStats0.committedInstType::VectorFloatReduce            0                       # Class of committed instruction. (Count)
system.cpu.commitStats0.committedInstType::VectorMisc            0                       # Class of committed instruction. (Count)
system.cpu.commitStats0.committedInstType::VectorIntegerExtension            0                       # Class of committed instruction. (Count)
system.cpu.commitStats0.committedInstType::VectorConfig            0                       # Class of committed instruction. (Count)
system.cpu.commitStats0.committedInstType::total            0                       # Class of committed instruction. (Count)
system.cpu.exec_context.thread_0.numMatAluAccesses            0                       # Number of matrix alu accesses (Count)
system.cpu.exec_context.thread_0.numCallsReturns            0                       # Number of times a function call or return occured (Count)
system.cpu.exec_context.thread_0.numMatInsts            0                       # Number of matrix instructions (Count)
system.cpu.exec_context.thread_0.numIdleCycles            0                       # Number of idle cycles (Cycle)
system.cpu.exec_context.thread_0.numBusyCycles            0                       # Number of busy cycles (Cycle)
system.cpu.exec_context.thread_0.notIdleFraction            1                       # Percentage of non-idle cycles (Ratio)
system.cpu.exec_context.thread_0.idleFraction            0                       # Percentage of idle cycles (Ratio)
system.cpu.executeStats0.numInsts                   0                       # Number of executed instructions (Count)
system.cpu.executeStats0.numNop                     0                       # Number of nop insts executed (Count)
system.cpu.executeStats0.numBranches                0                       # Number of branches executed (Count)
system.cpu.executeStats0.numLoadInsts               0                       # Number of load instructions executed (Count)
system.cpu.executeStats0.numStoreInsts              0                       # Number of stores executed (Count)
system.cpu.executeStats0.instRate                 nan                       # Inst execution rate ((Count/Cycle))
system.cpu.executeStats0.numFpRegWrites             0                       # Number of times the floating registers were written (Count)
system.cpu.executeStats0.numMemRefs                 0                       # Number of memory refs (Count)
system.cpu.executeStats0.numVecAluAccesses            0                       # Number of vector alu accesses (Count)
system.cpu.executeStats0.numDiscardedOps            0                       # Number of ops (including micro ops) which were discarded before commit (Count)
system.cpu.fetchStats0.numInsts                     0                       # Number of instructions fetched (thread level) (Count)
system.cpu.fetchStats0.numOps                       0                       # Number of ops (including micro ops) fetched (thread level) (Count)
system.cpu.fetchStats0.fetchRate                  nan                       # Number of inst fetches per cycle ((Count/Cycle))
system.cpu.fetchStats0.branchRate                 nan                       # Number of branch fetches per cycle (Ratio)
system.cpu.fetchStats0.numFetchSuspends             0                       # Number of times Execute suspended instruction fetching (Count)
system.cpu.interrupts.clk_domain.clock           8000                       # Clock period in ticks (Tick)
system.cpu.mmu.dtb.rdAccesses                       0                       # TLB accesses on read requests (Count)
system.cpu.mmu.dtb.wrAccesses                       0                       # TLB accesses on write requests (Count)
system.cpu.mmu.dtb.rdMisses                         0                       # TLB misses on read requests (Count)
system.cpu.mmu.dtb.wrMisses                         0                       # TLB misses on write requests (Count)
system.cpu.mmu.dtb.walker.power_state.pwrStateResidencyTicks::UNDEFINED 125567122000                       # Cumulative time (in ticks) in various power states (Tick)
system.cpu.mmu.itb.rdAccesses                       0                       # TLB accesses on read requests (Count)
system.cpu.mmu.itb.wrAccesses                       0                       # TLB accesses on write requests (Count)
system.cpu.mmu.itb.rdMisses                         0                       # TLB misses on read requests (Count)
system.cpu.mmu.itb.wrMisses                         0                       # TLB misses on write requests (Count)
system.cpu.mmu.itb.walker.power_state.pwrStateResidencyTicks::UNDEFINED 125567122000                       # Cumulative time (in ticks) in various power states (Tick)
system.cpu.power_state.pwrStateResidencyTicks::OFF 124535975500                       # Cumulative time (in ticks) in various power states (Tick)
system.cpu.thread_0.numInsts                        0                       # Number of Instructions committed (Count)
system.cpu.thread_0.numOps                          0                       # Number of Ops committed (Count)
system.cpu.thread_0.numMemRefs                      0                       # Number of Memory References (Count)
system.cpu.workload.numSyscalls                     0                       # Number of system calls (Count)
system.cpu_clk_domain.clock                       500                       # Clock period in ticks (Tick)
system.cpu_voltage_domain.voltage                   1                       # Voltage in Volts (Volt)
system.mem_ctrls.avgPriority_ruby.dir_cntrl0::samples   2788157.00                       # Average QoS priority value for accepted requests (Count)
system.mem_ctrls.priorityMinLatency      0.000000018750                       # per QoS priority minimum request to response latency (Second)
system.mem_ctrls.priorityMaxLatency      0.000452190500                       # per QoS priority maximum request to response latency (Second)
system.mem_ctrls.numReadWriteTurnArounds        86097                       # Number of turnarounds from READ to WRITE (Count)
system.mem_ctrls.numWriteReadTurnArounds        86097                       # Number of turnarounds from WRITE to READ (Count)
system.mem_ctrls.numStayReadState             4144321                       # Number of times bus staying in READ state (Count)
system.mem_ctrls.numStayWriteState            1291632                       # Number of times bus staying in WRITE state (Count)
system.mem_ctrls.readReqs                     1410579                       # Number of read requests accepted (Count)
system.mem_ctrls.writeReqs                    1377578                       # Number of write requests accepted (Count)
system.mem_ctrls.readBursts                   1410579                       # Number of controller read bursts, including those serviced by the write queue (Count)
system.mem_ctrls.writeBursts                  1377578                       # Number of controller write bursts, including those merged in the write queue (Count)
system.mem_ctrls.servicedByWrQ                      0                       # Number of controller read bursts serviced by the write queue (Count)
system.mem_ctrls.mergedWrBursts                     0                       # Number of controller write bursts merged with an existing one (Count)
system.mem_ctrls.neitherReadNorWriteReqs            0                       # Number of requests that are neither read nor write (Count)
system.mem_ctrls.avgRdQLen                       1.00                       # Average read queue length when enqueuing ((Count/Tick))
system.mem_ctrls.avgWrQLen                      25.73                       # Average write queue length when enqueuing ((Count/Tick))
system.mem_ctrls.numRdRetry                         0                       # Number of times read queue was full causing retry (Count)
system.mem_ctrls.numWrRetry                         0                       # Number of times write queue was full causing retry (Count)
system.mem_ctrls.readPktSize::0                     0                       # Read request sizes (log2) (Count)
system.mem_ctrls.readPktSize::1                     0                       # Read request sizes (log2) (Count)
system.mem_ctrls.readPktSize::2                     0                       # Read request sizes (log2) (Count)
system.mem_ctrls.readPktSize::3                     0                       # Read request sizes (log2) (Count)
system.mem_ctrls.readPktSize::4                     0                       # Read request sizes (log2) (Count)
system.mem_ctrls.readPktSize::5                     0                       # Read request sizes (log2) (Count)
system.mem_ctrls.readPktSize::6               1410579                       # Read request sizes (log2) (Count)
system.mem_ctrls.writePktSize::0                    0                       # Write request sizes (log2) (Count)
system.mem_ctrls.writePktSize::1                    0                       # Write request sizes (log2) (Count)
system.mem_ctrls.writePktSize::2                    0                       # Write request sizes (log2) (Count)
system.mem_ctrls.writePktSize::3                    0                       # Write request sizes (log2) (Count)
system.mem_ctrls.writePktSize::4                    0                       # Write request sizes (log2) (Count)
system.mem_ctrls.writePktSize::5                    0                       # Write request sizes (log2) (Count)
system.mem_ctrls.writePktSize::6              1377578                       # Write request sizes (log2) (Count)
system.mem_ctrls.rdQLenPdf::0                 1410579                       # What read queue length does an incoming req see (Count)
system.mem_ctrls.rdQLenPdf::1                       0                       # What read queue length does an incoming req see (Count)
system.mem_ctrls.rdQLenPdf::2                       0                       # What read queue length does an incoming req see (Count)
system.mem_ctrls.rdQLenPdf::3                       0                       # What read queue length does an incoming req see (Count)
system.mem_ctrls.rdQLenPdf::4                       0                       # What read queue length does an incoming req see (Count)
system.mem_ctrls.rdQLenPdf::5                       0                       # What read queue length does an incoming req see (Count)
system.mem_ctrls.rdQLenPdf::6                       0                       # What read queue length does an incoming req see (Count)
system.mem_ctrls.rdQLenPdf::7                       0                       # What read queue length does an incoming req see (Count)
system.mem_ctrls.rdQLenPdf::8                       0                       # What read queue length does an incoming req see (Count)
system.mem_ctrls.rdQLenPdf::9                       0                       # What read queue length does an incoming req see (Count)
system.mem_ctrls.rdQLenPdf::10                      0                       # What read queue length does an incoming req see (Count)
system.mem_ctrls.rdQLenPdf::11                      0                       # What read queue length does an incoming req see (Count)
system.mem_ctrls.rdQLenPdf::12                      0                       # What read queue length does an incoming req see (Count)
system.mem_ctrls.rdQLenPdf::13                      0                       # What read queue length does an incoming req see (Count)
system.mem_ctrls.rdQLenPdf::14                      0                       # What read queue length does an incoming req see (Count)
system.mem_ctrls.rdQLenPdf::15                      0                       # What read queue length does an incoming req see (Count)
system.mem_ctrls.rdQLenPdf::16                      0                       # What read queue length does an incoming req see (Count)
system.mem_ctrls.rdQLenPdf::17                      0                       # What read queue length does an incoming req see (Count)
system.mem_ctrls.rdQLenPdf::18                      0                       # What read queue length does an incoming req see (Count)
system.mem_ctrls.rdQLenPdf::19                      0                       # What read queue length does an incoming req see (Count)
system.mem_ctrls.rdQLenPdf::20                      0                       # What read queue length does an incoming req see (Count)
system.mem_ctrls.rdQLenPdf::21                      0                       # What read queue length does an incoming req see (Count)
system.mem_ctrls.rdQLenPdf::22                      0                       # What read queue length does an incoming req see (Count)
system.mem_ctrls.rdQLenPdf::23                      0                       # What read queue length does an incoming req see (Count)
system.mem_ctrls.rdQLenPdf::24                      0                       # What read queue length does an incoming req see (Count)
system.mem_ctrls.rdQLenPdf::25                      0                       # What read queue length does an incoming req see (Count)
system.mem_ctrls.rdQLenPdf::26                      0                       # What read queue length does an incoming req see (Count)
system.mem_ctrls.rdQLenPdf::27                      0                       # What read queue length does an incoming req see (Count)
system.mem_ctrls.rdQLenPdf::28                      0                       # What read queue length does an incoming req see (Count)
system.mem_ctrls.rdQLenPdf::29                      0                       # What read queue length does an incoming req see (Count)
system.mem_ctrls.rdQLenPdf::30                      0                       # What read queue length does an incoming req see (Count)
system.mem_ctrls.rdQLenPdf::31                      0                       # What read queue length does an incoming req see (Count)
system.mem_ctrls.wrQLenPdf::0                       1                       # What write queue length does an incoming req see (Count)
system.mem_ctrls.wrQLenPdf::1                       1                       # What write queue length does an incoming req see (Count)
system.mem_ctrls.wrQLenPdf::2                       1                       # What write queue length does an incoming req see (Count)
system.mem_ctrls.wrQLenPdf::3                       1                       # What write queue length does an incoming req see (Count)
system.mem_ctrls.wrQLenPdf::4                       1                       # What write queue length does an incoming req see (Count)
system.mem_ctrls.wrQLenPdf::5                       1                       # What write queue length does an incoming req see (Count)
system.mem_ctrls.wrQLenPdf::6                       1                       # What write queue length does an incoming req see (Count)
system.mem_ctrls.wrQLenPdf::7                       1                       # What write queue length does an incoming req see (Count)
system.mem_ctrls.wrQLenPdf::8                       1                       # What write queue length does an incoming req see (Count)
system.mem_ctrls.wrQLenPdf::9                       1                       # What write queue length does an incoming req see (Count)
system.mem_ctrls.wrQLenPdf::10                      1                       # What write queue length does an incoming req see (Count)
system.mem_ctrls.wrQLenPdf::11                      1                       # What write queue length does an incoming req see (Count)
system.mem_ctrls.wrQLenPdf::12                      1                       # What write queue length does an incoming req see (Count)
system.mem_ctrls.wrQLenPdf::13                      1                       # What write queue length does an incoming req see (Count)
system.mem_ctrls.wrQLenPdf::14                      1                       # What write queue length does an incoming req see (Count)
system.mem_ctrls.wrQLenPdf::15                      3                       # What write queue length does an incoming req see (Count)
system.mem_ctrls.wrQLenPdf::16                      3                       # What write queue length does an incoming req see (Count)
system.mem_ctrls.wrQLenPdf::17                  85981                       # What write queue length does an incoming req see (Count)
system.mem_ctrls.wrQLenPdf::18                  86099                       # What write queue length does an incoming req see (Count)
system.mem_ctrls.wrQLenPdf::19                  86098                       # What write queue length does an incoming req see (Count)
system.mem_ctrls.wrQLenPdf::20                  86098                       # What write queue length does an incoming req see (Count)
system.mem_ctrls.wrQLenPdf::21                  86098                       # What write queue length does an incoming req see (Count)
system.mem_ctrls.wrQLenPdf::22                  86213                       # What write queue length does an incoming req see (Count)
system.mem_ctrls.wrQLenPdf::23                  86097                       # What write queue length does an incoming req see (Count)
system.mem_ctrls.wrQLenPdf::24                  86097                       # What write queue length does an incoming req see (Count)
system.mem_ctrls.wrQLenPdf::25                  86097                       # What write queue length does an incoming req see (Count)
system.mem_ctrls.wrQLenPdf::26                  86097                       # What write queue length does an incoming req see (Count)
system.mem_ctrls.wrQLenPdf::27                  86097                       # What write queue length does an incoming req see (Count)
system.mem_ctrls.wrQLenPdf::28                  86097                       # What write queue length does an incoming req see (Count)
system.mem_ctrls.wrQLenPdf::29                  86097                       # What write queue length does an incoming req see (Count)
system.mem_ctrls.wrQLenPdf::30                  86097                       # What write queue length does an incoming req see (Count)
system.mem_ctrls.wrQLenPdf::31                  86097                       # What write queue length does an incoming req see (Count)
system.mem_ctrls.wrQLenPdf::32                  86097                       # What write queue length does an incoming req see (Count)
system.mem_ctrls.wrQLenPdf::33                      0                       # What write queue length does an incoming req see (Count)
system.mem_ctrls.wrQLenPdf::34                      0                       # What write queue length does an incoming req see (Count)
system.mem_ctrls.wrQLenPdf::35                      0                       # What write queue length does an incoming req see (Count)
system.mem_ctrls.wrQLenPdf::36                      0                       # What write queue length does an incoming req see (Count)
system.mem_ctrls.wrQLenPdf::37                      0                       # What write queue length does an incoming req see (Count)
system.mem_ctrls.wrQLenPdf::38                      0                       # What write queue length does an incoming req see (Count)
system.mem_ctrls.wrQLenPdf::39                      0                       # What write queue length does an incoming req see (Count)
system.mem_ctrls.wrQLenPdf::40                      0                       # What write queue length does an incoming req see (Count)
system.mem_ctrls.wrQLenPdf::41                      0                       # What write queue length does an incoming req see (Count)
system.mem_ctrls.wrQLenPdf::42                      0                       # What write queue length does an incoming req see (Count)
system.mem_ctrls.wrQLenPdf::43                      0                       # What write queue length does an incoming req see (Count)
system.mem_ctrls.wrQLenPdf::44                      0                       # What write queue length does an incoming req see (Count)
system.mem_ctrls.wrQLenPdf::45                      0                       # What write queue length does an incoming req see (Count)
system.mem_ctrls.wrQLenPdf::46                      0                       # What write queue length does an incoming req see (Count)
system.mem_ctrls.wrQLenPdf::47                      0                       # What write queue length does an incoming req see (Count)
system.mem_ctrls.wrQLenPdf::48                      0                       # What write queue length does an incoming req see (Count)
system.mem_ctrls.wrQLenPdf::49                      0                       # What write queue length does an incoming req see (Count)
system.mem_ctrls.wrQLenPdf::50                      0                       # What write queue length does an incoming req see (Count)
system.mem_ctrls.wrQLenPdf::51                      0                       # What write queue length does an incoming req see (Count)
system.mem_ctrls.wrQLenPdf::52                      0                       # What write queue length does an incoming req see (Count)
system.mem_ctrls.wrQLenPdf::53                      0                       # What write queue length does an incoming req see (Count)
system.mem_ctrls.wrQLenPdf::54                      0                       # What write queue length does an incoming req see (Count)
system.mem_ctrls.wrQLenPdf::55                      0                       # What write queue length does an incoming req see (Count)
system.mem_ctrls.wrQLenPdf::56                      0                       # What write queue length does an incoming req see (Count)
system.mem_ctrls.wrQLenPdf::57                      0                       # What write queue length does an incoming req see (Count)
system.mem_ctrls.wrQLenPdf::58                      0                       # What write queue length does an incoming req see (Count)
system.mem_ctrls.wrQLenPdf::59                      0                       # What write queue length does an incoming req see (Count)
system.mem_ctrls.wrQLenPdf::60                      0                       # What write queue length does an incoming req see (Count)
system.mem_ctrls.wrQLenPdf::61                      0                       # What write queue length does an incoming req see (Count)
system.mem_ctrls.wrQLenPdf::62                      0                       # What write queue length does an incoming req see (Count)
system.mem_ctrls.wrQLenPdf::63                      0                       # What write queue length does an incoming req see (Count)
system.mem_ctrls.rdPerTurnAround::samples        86097                       # Reads before turning the bus around for writes (Count)
system.mem_ctrls.rdPerTurnAround::mean      16.383533                       # Reads before turning the bus around for writes (Count)
system.mem_ctrls.rdPerTurnAround::gmean     16.005619                       # Reads before turning the bus around for writes (Count)
system.mem_ctrls.rdPerTurnAround::stdev    100.007715                       # Reads before turning the bus around for writes (Count)
system.mem_ctrls.rdPerTurnAround::0-1023        86095    100.00%    100.00% # Reads before turning the bus around for writes (Count)
system.mem_ctrls.rdPerTurnAround::1024-2047            1      0.00%    100.00% # Reads before turning the bus around for writes (Count)
system.mem_ctrls.rdPerTurnAround::28672-29695            1      0.00%    100.00% # Reads before turning the bus around for writes (Count)
system.mem_ctrls.rdPerTurnAround::total         86097                       # Reads before turning the bus around for writes (Count)
system.mem_ctrls.wrPerTurnAround::samples        86097                       # Writes before turning the bus around for reads (Count)
system.mem_ctrls.wrPerTurnAround::mean      16.000046                       # Writes before turning the bus around for reads (Count)
system.mem_ctrls.wrPerTurnAround::gmean     16.000044                       # Writes before turning the bus around for reads (Count)
system.mem_ctrls.wrPerTurnAround::stdev      0.009639                       # Writes before turning the bus around for reads (Count)
system.mem_ctrls.wrPerTurnAround::16            86095    100.00%    100.00% # Writes before turning the bus around for reads (Count)
system.mem_ctrls.wrPerTurnAround::18                2      0.00%    100.00% # Writes before turning the bus around for reads (Count)
system.mem_ctrls.wrPerTurnAround::total         86097                       # Writes before turning the bus around for reads (Count)
system.mem_ctrls.bytesReadWrQ                       0                       # Total number of bytes read from write queue (Byte)
system.mem_ctrls.bytesReadSys                90277056                       # Total read bytes from the system interface side (Byte)
system.mem_ctrls.bytesWrittenSys             88164992                       # Total written bytes from the system interface side (Byte)
system.mem_ctrls.avgRdBWSys              724907446.52335417                       # Average system read bandwidth in Byte/s ((Byte/Second))
system.mem_ctrls.avgWrBWSys              707947977.65084350                       # Average system write bandwidth in Byte/s ((Byte/Second))
system.mem_ctrls.totGap                  124535915000                       # Total gap between requests (Tick)
system.mem_ctrls.avgGap                      44666.03                       # Average gap between requests ((Tick/Count))
system.mem_ctrls.requestorReadBytes::ruby.dir_cntrl0     90277056                       # Per-requestor bytes read from memory (Byte)
system.mem_ctrls.requestorWriteBytes::ruby.dir_cntrl0     88163584                       # Per-requestor bytes write to memory (Byte)
system.mem_ctrls.requestorReadRate::ruby.dir_cntrl0 724907446.523354172707                       # Per-requestor bytes read from memory rate ((Byte/Second))
system.mem_ctrls.requestorWriteRate::ruby.dir_cntrl0 707936671.680866956711                       # Per-requestor bytes write to memory rate ((Byte/Second))
system.mem_ctrls.requestorReadAccesses::ruby.dir_cntrl0      1410579                       # Per-requestor read serviced memory accesses (Count)
system.mem_ctrls.requestorWriteAccesses::ruby.dir_cntrl0      1377578                       # Per-requestor write serviced memory accesses (Count)
system.mem_ctrls.requestorReadTotalLat::ruby.dir_cntrl0  43656316000                       # Per-requestor read total memory access latency (Tick)
system.mem_ctrls.requestorWriteTotalLat::ruby.dir_cntrl0 2998800676250                       # Per-requestor write total memory access latency (Tick)
system.mem_ctrls.requestorReadAvgLat::ruby.dir_cntrl0     30949.22                       # Per-requestor read average memory access latency ((Tick/Count))
system.mem_ctrls.requestorWriteAvgLat::ruby.dir_cntrl0   2176864.52                       # Per-requestor write average memory access latency ((Tick/Count))
system.mem_ctrls.dram.bytesRead::ruby.dir_cntrl0     90277056                       # Number of bytes read from this memory (Byte)
system.mem_ctrls.dram.bytesRead::total       90277056                       # Number of bytes read from this memory (Byte)
system.mem_ctrls.dram.bytesWritten::ruby.dir_cntrl0     88164992                       # Number of bytes written to this memory (Byte)
system.mem_ctrls.dram.bytesWritten::total     88164992                       # Number of bytes written to this memory (Byte)
system.mem_ctrls.dram.numReads::ruby.dir_cntrl0      1410579                       # Number of read requests responded to by this memory (Count)
system.mem_ctrls.dram.numReads::total         1410579                       # Number of read requests responded to by this memory (Count)
system.mem_ctrls.dram.numWrites::ruby.dir_cntrl0      1377578                       # Number of write requests responded to by this memory (Count)
system.mem_ctrls.dram.numWrites::total        1377578                       # Number of write requests responded to by this memory (Count)
system.mem_ctrls.dram.bwRead::ruby.dir_cntrl0    724907447                       # Total read bandwidth from this memory ((Byte/Second))
system.mem_ctrls.dram.bwRead::total         724907447                       # Total read bandwidth from this memory ((Byte/Second))
system.mem_ctrls.dram.bwWrite::ruby.dir_cntrl0    707947978                       # Write bandwidth from this memory ((Byte/Second))
system.mem_ctrls.dram.bwWrite::total        707947978                       # Write bandwidth from this memory ((Byte/Second))
system.mem_ctrls.dram.bwTotal::ruby.dir_cntrl0   1432855424                       # Total bandwidth to/from this memory ((Byte/Second))
system.mem_ctrls.dram.bwTotal::total       1432855424                       # Total bandwidth to/from this memory ((Byte/Second))
system.mem_ctrls.dram.readBursts              1410579                       # Number of DRAM read bursts (Count)
system.mem_ctrls.dram.writeBursts             1377556                       # Number of DRAM write bursts (Count)
system.mem_ctrls.dram.perBankRdBursts::0        88239                       # Per bank write bursts (Count)
system.mem_ctrls.dram.perBankRdBursts::1        88207                       # Per bank write bursts (Count)
system.mem_ctrls.dram.perBankRdBursts::2        88241                       # Per bank write bursts (Count)
system.mem_ctrls.dram.perBankRdBursts::3        88192                       # Per bank write bursts (Count)
system.mem_ctrls.dram.perBankRdBursts::4        88192                       # Per bank write bursts (Count)
system.mem_ctrls.dram.perBankRdBursts::5        88197                       # Per bank write bursts (Count)
system.mem_ctrls.dram.perBankRdBursts::6        88111                       # Per bank write bursts (Count)
system.mem_ctrls.dram.perBankRdBursts::7        88099                       # Per bank write bursts (Count)
system.mem_ctrls.dram.perBankRdBursts::8        88130                       # Per bank write bursts (Count)
system.mem_ctrls.dram.perBankRdBursts::9        88068                       # Per bank write bursts (Count)
system.mem_ctrls.dram.perBankRdBursts::10        88077                       # Per bank write bursts (Count)
system.mem_ctrls.dram.perBankRdBursts::11        88155                       # Per bank write bursts (Count)
system.mem_ctrls.dram.perBankRdBursts::12        88073                       # Per bank write bursts (Count)
system.mem_ctrls.dram.perBankRdBursts::13        88065                       # Per bank write bursts (Count)
system.mem_ctrls.dram.perBankRdBursts::14        88213                       # Per bank write bursts (Count)
system.mem_ctrls.dram.perBankRdBursts::15        88320                       # Per bank write bursts (Count)
system.mem_ctrls.dram.perBankWrBursts::0        86187                       # Per bank write bursts (Count)
system.mem_ctrls.dram.perBankWrBursts::1        86145                       # Per bank write bursts (Count)
system.mem_ctrls.dram.perBankWrBursts::2        86144                       # Per bank write bursts (Count)
system.mem_ctrls.dram.perBankWrBursts::3        86144                       # Per bank write bursts (Count)
system.mem_ctrls.dram.perBankWrBursts::4        86144                       # Per bank write bursts (Count)
system.mem_ctrls.dram.perBankWrBursts::5        86149                       # Per bank write bursts (Count)
system.mem_ctrls.dram.perBankWrBursts::6        86031                       # Per bank write bursts (Count)
system.mem_ctrls.dram.perBankWrBursts::7        86044                       # Per bank write bursts (Count)
system.mem_ctrls.dram.perBankWrBursts::8        86072                       # Per bank write bursts (Count)
system.mem_ctrls.dram.perBankWrBursts::9        86016                       # Per bank write bursts (Count)
system.mem_ctrls.dram.perBankWrBursts::10        86016                       # Per bank write bursts (Count)
system.mem_ctrls.dram.perBankWrBursts::11        86080                       # Per bank write bursts (Count)
system.mem_ctrls.dram.perBankWrBursts::12        86016                       # Per bank write bursts (Count)
system.mem_ctrls.dram.perBankWrBursts::13        86016                       # Per bank write bursts (Count)
system.mem_ctrls.dram.perBankWrBursts::14        86080                       # Per bank write bursts (Count)
system.mem_ctrls.dram.perBankWrBursts::15        86272                       # Per bank write bursts (Count)
system.mem_ctrls.dram.totQLat             17207959750                       # Total ticks spent queuing (Tick)
system.mem_ctrls.dram.totBusLat            7052895000                       # Total ticks spent in databus transfers (Tick)
system.mem_ctrls.dram.totMemAccLat        43656316000                       # Total ticks spent from burst creation until serviced by the DRAM (Tick)
system.mem_ctrls.dram.avgQLat                12199.22                       # Average queueing delay per DRAM burst ((Tick/Count))
system.mem_ctrls.dram.avgBusLat               5000.00                       # Average bus latency per DRAM burst ((Tick/Count))
system.mem_ctrls.dram.avgMemAccLat           30949.22                       # Average memory access latency per DRAM burst ((Tick/Count))
system.mem_ctrls.dram.readRowHits             1297366                       # Number of row buffer hits during reads (Count)
system.mem_ctrls.dram.writeRowHits            1280133                       # Number of row buffer hits during writes (Count)
system.mem_ctrls.dram.readRowHitRate            91.97                       # Row buffer hit rate for reads (Ratio)
system.mem_ctrls.dram.writeRowHitRate           92.93                       # Row buffer hit rate for writes (Ratio)
system.mem_ctrls.dram.bytesPerActivate::samples       210634                       # Bytes accessed per row activation (Byte)
system.mem_ctrls.dram.bytesPerActivate::mean   847.154249                       # Bytes accessed per row activation (Byte)
system.mem_ctrls.dram.bytesPerActivate::gmean   747.029022                       # Bytes accessed per row activation (Byte)
system.mem_ctrls.dram.bytesPerActivate::stdev   296.332560                       # Bytes accessed per row activation (Byte)
system.mem_ctrls.dram.bytesPerActivate::0-127         3662      1.74%      1.74% # Bytes accessed per row activation (Byte)
system.mem_ctrls.dram.bytesPerActivate::128-255         5626      2.67%      4.41% # Bytes accessed per row activation (Byte)
system.mem_ctrls.dram.bytesPerActivate::256-383        23630     11.22%     15.63% # Bytes accessed per row activation (Byte)
system.mem_ctrls.dram.bytesPerActivate::384-511         3198      1.52%     17.15% # Bytes accessed per row activation (Byte)
system.mem_ctrls.dram.bytesPerActivate::512-639         1048      0.50%     17.64% # Bytes accessed per row activation (Byte)
system.mem_ctrls.dram.bytesPerActivate::640-767         6239      2.96%     20.61% # Bytes accessed per row activation (Byte)
system.mem_ctrls.dram.bytesPerActivate::768-895        21850     10.37%     30.98% # Bytes accessed per row activation (Byte)
system.mem_ctrls.dram.bytesPerActivate::896-1023         6614      3.14%     34.12% # Bytes accessed per row activation (Byte)
system.mem_ctrls.dram.bytesPerActivate::1024-1151       138767     65.88%    100.00% # Bytes accessed per row activation (Byte)
system.mem_ctrls.dram.bytesPerActivate::total       210634                       # Bytes accessed per row activation (Byte)
system.mem_ctrls.dram.bytesRead              90277056                       # Total bytes read (Byte)
system.mem_ctrls.dram.bytesWritten           88163584                       # Total bytes written (Byte)
system.mem_ctrls.dram.avgRdBW              724.907447                       # Average DRAM read bandwidth in MiBytes/s ((Byte/Second))
system.mem_ctrls.dram.avgWrBW              707.936672                       # Average DRAM write bandwidth in MiBytes/s ((Byte/Second))
system.mem_ctrls.dram.peakBW                 12800.00                       # Theoretical peak bandwidth in MiByte/s ((Byte/Second))
system.mem_ctrls.dram.busUtil                   11.19                       # Data bus utilization in percentage (Ratio)
system.mem_ctrls.dram.busUtilRead                5.66                       # Data bus utilization in percentage for reads (Ratio)
system.mem_ctrls.dram.busUtilWrite               5.53                       # Data bus utilization in percentage for writes (Ratio)
system.mem_ctrls.dram.pageHitRate               92.45                       # Row buffer hit rate, read and write combined (Ratio)
system.mem_ctrls.dram.power_state.pwrStateResidencyTicks::UNDEFINED 125567122000                       # Cumulative time (in ticks) in various power states (Tick)
system.mem_ctrls.dram.rank0.actEnergy       750742440                       # Energy for activate commands per rank (pJ) (Joule)
system.mem_ctrls.dram.rank0.preEnergy       399021480                       # Energy for precharge commands per rank (pJ) (Joule)
system.mem_ctrls.dram.rank0.readEnergy     5037112920                       # Energy for read commands per rank (pJ) (Joule)
system.mem_ctrls.dram.rank0.writeEnergy    3596517360                       # Energy for write commands per rank (pJ) (Joule)
system.mem_ctrls.dram.rank0.refreshEnergy 9830552160.000002                       # Energy for refresh commands per rank (pJ) (Joule)
system.mem_ctrls.dram.rank0.actBackEnergy  29629313640                       # Energy for active background per rank (pJ) (Joule)
system.mem_ctrls.dram.rank0.preBackEnergy  22870810080                       # Energy for precharge background per rank (pJ) (Joule)
system.mem_ctrls.dram.rank0.actPowerDownEnergy            0                       # Energy for active power-down per rank (pJ) (Joule)
system.mem_ctrls.dram.rank0.prePowerDownEnergy            0                       # Energy for precharge power-down per rank (pJ) (Joule)
system.mem_ctrls.dram.rank0.selfRefreshEnergy            0                       # Energy for self refresh per rank (pJ) (Joule)
system.mem_ctrls.dram.rank0.totalEnergy   72114070080                       # Total energy per rank (pJ) (Joule)
system.mem_ctrls.dram.rank0.averagePower   579.062153                       # Core power per rank (mW) (Watt)
system.mem_ctrls.dram.rank0.totalIdleTime            0                       # Total Idle time Per DRAM Rank (Tick)
system.mem_ctrls.dram.rank0.pwrStateTime::IDLE  58517370000                       # Time in different power states (Tick)
system.mem_ctrls.dram.rank0.pwrStateTime::REF   4158440000                       # Time in different power states (Tick)
system.mem_ctrls.dram.rank0.pwrStateTime::SREF            0                       # Time in different power states (Tick)
system.mem_ctrls.dram.rank0.pwrStateTime::PRE_PDN            0                       # Time in different power states (Tick)
system.mem_ctrls.dram.rank0.pwrStateTime::ACT  61860165500                       # Time in different power states (Tick)
system.mem_ctrls.dram.rank0.pwrStateTime::ACT_PDN            0                       # Time in different power states (Tick)
system.mem_ctrls.dram.rank1.actEnergy       753198600                       # Energy for activate commands per rank (pJ) (Joule)
system.mem_ctrls.dram.rank1.preEnergy       400334550                       # Energy for precharge commands per rank (pJ) (Joule)
system.mem_ctrls.dram.rank1.readEnergy     5034421140                       # Energy for read commands per rank (pJ) (Joule)
system.mem_ctrls.dram.rank1.writeEnergy    3594324960                       # Energy for write commands per rank (pJ) (Joule)
system.mem_ctrls.dram.rank1.refreshEnergy 9830552160.000002                       # Energy for refresh commands per rank (pJ) (Joule)
system.mem_ctrls.dram.rank1.actBackEnergy  29680789200                       # Energy for active background per rank (pJ) (Joule)
system.mem_ctrls.dram.rank1.preBackEnergy  22824475680                       # Energy for precharge background per rank (pJ) (Joule)
system.mem_ctrls.dram.rank1.actPowerDownEnergy            0                       # Energy for active power-down per rank (pJ) (Joule)
system.mem_ctrls.dram.rank1.prePowerDownEnergy            0                       # Energy for precharge power-down per rank (pJ) (Joule)
system.mem_ctrls.dram.rank1.selfRefreshEnergy            0                       # Energy for self refresh per rank (pJ) (Joule)
system.mem_ctrls.dram.rank1.totalEnergy   72118096290                       # Total energy per rank (pJ) (Joule)
system.mem_ctrls.dram.rank1.averagePower   579.094483                       # Core power per rank (mW) (Watt)
system.mem_ctrls.dram.rank1.totalIdleTime            0                       # Total Idle time Per DRAM Rank (Tick)
system.mem_ctrls.dram.rank1.pwrStateTime::IDLE  58394591500                       # Time in different power states (Tick)
system.mem_ctrls.dram.rank1.pwrStateTime::REF   4158440000                       # Time in different power states (Tick)
system.mem_ctrls.dram.rank1.pwrStateTime::SREF            0                       # Time in different power states (Tick)
system.mem_ctrls.dram.rank1.pwrStateTime::PRE_PDN            0                       # Time in different power states (Tick)
system.mem_ctrls.dram.rank1.pwrStateTime::ACT  61982944000                       # Time in different power states (Tick)
system.mem_ctrls.dram.rank1.pwrStateTime::ACT_PDN            0                       # Time in different power states (Tick)
system.mem_ctrls.power_state.pwrStateResidencyTicks::UNDEFINED 125567122000                       # Cumulative time (in ticks) in various power states (Tick)
system.ruby.delayHistogram::bucket_size             1                       # delay histogram for all message (Unspecified)
system.ruby.delayHistogram::max_bucket              9                       # delay histogram for all message (Unspecified)
system.ruby.delayHistogram::samples           9840632                       # delay histogram for all message (Unspecified)
system.ruby.delayHistogram::mean             1.146340                       # delay histogram for all message (Unspecified)
system.ruby.delayHistogram::stdev            2.802967                       # delay histogram for all message (Unspecified)
system.ruby.delayHistogram               |     8430543     85.67%     85.67% |           0      0.00%     85.67% |           0      0.00%     85.67% |           0      0.00%     85.67% |           0      0.00%     85.67% |           0      0.00%     85.67% |           0      0.00%     85.67% |           0      0.00%     85.67% |     1410089     14.33%    100.00% |           0      0.00%    100.00% # delay histogram for all message (Unspecified)
system.ruby.delayHistogram::total             9840632                       # delay histogram for all message (Unspecified)
system.ruby.m_outstandReqHistSeqr::bucket_size            1                       (Unspecified)
system.ruby.m_outstandReqHistSeqr::max_bucket            9                       (Unspecified)
system.ruby.m_outstandReqHistSeqr::samples     24183971                       (Unspecified)
system.ruby.m_outstandReqHistSeqr::mean      1.000000                       (Unspecified)
system.ruby.m_outstandReqHistSeqr::gmean     1.000000                       (Unspecified)
system.ruby.m_outstandReqHistSeqr::stdev     0.000455                       (Unspecified)
system.ruby.m_outstandReqHistSeqr        |           0      0.00%      0.00% |    24183966    100.00%    100.00% |           5      0.00%    100.00% |           0      0.00%    100.00% |           0      0.00%    100.00% |           0      0.00%    100.00% |           0      0.00%    100.00% |           0      0.00%    100.00% |           0      0.00%    100.00% |           0      0.00%    100.00% (Unspecified)
system.ruby.m_outstandReqHistSeqr::total     24183971                       (Unspecified)
system.ruby.m_latencyHistSeqr::bucket_size          128                       (Unspecified)
system.ruby.m_latencyHistSeqr::max_bucket         1279                       (Unspecified)
system.ruby.m_latencyHistSeqr::samples       24183970                       (Unspecified)
system.ruby.m_latencyHistSeqr::mean          9.299052                       (Unspecified)
system.ruby.m_latencyHistSeqr::gmean         1.329009                       (Unspecified)
system.ruby.m_latencyHistSeqr::stdev        39.698543                       (Unspecified)
system.ruby.m_latencyHistSeqr            |    24060080     99.49%     99.49% |       21918      0.09%     99.58% |       10902      0.05%     99.62% |       74649      0.31%     99.93% |        2906      0.01%     99.94% |       13416      0.06%    100.00% |           0      0.00%    100.00% |          32      0.00%    100.00% |          66      0.00%    100.00% |           1      0.00%    100.00% (Unspecified)
system.ruby.m_latencyHistSeqr::total         24183970                       (Unspecified)
system.ruby.m_hitLatencyHistSeqr::bucket_size            1                       (Unspecified)
system.ruby.m_hitLatencyHistSeqr::max_bucket            9                       (Unspecified)
system.ruby.m_hitLatencyHistSeqr::samples     22773391                       (Unspecified)
system.ruby.m_hitLatencyHistSeqr::mean              1                       (Unspecified)
system.ruby.m_hitLatencyHistSeqr::gmean             1                       (Unspecified)
system.ruby.m_hitLatencyHistSeqr         |           0      0.00%      0.00% |    22773391    100.00%    100.00% |           0      0.00%    100.00% |           0      0.00%    100.00% |           0      0.00%    100.00% |           0      0.00%    100.00% |           0      0.00%    100.00% |           0      0.00%    100.00% |           0      0.00%    100.00% |           0      0.00%    100.00% (Unspecified)
system.ruby.m_hitLatencyHistSeqr::total      22773391                       (Unspecified)
system.ruby.m_missLatencyHistSeqr::bucket_size          128                       (Unspecified)
system.ruby.m_missLatencyHistSeqr::max_bucket         1279                       (Unspecified)
system.ruby.m_missLatencyHistSeqr::samples      1410579                       (Unspecified)
system.ruby.m_missLatencyHistSeqr::mean    143.284848                       (Unspecified)
system.ruby.m_missLatencyHistSeqr::gmean   131.174108                       (Unspecified)
system.ruby.m_missLatencyHistSeqr::stdev    89.193500                       (Unspecified)
system.ruby.m_missLatencyHistSeqr        |     1286689     91.22%     91.22% |       21918      1.55%     92.77% |       10902      0.77%     93.54% |       74649      5.29%     98.84% |        2906      0.21%     99.04% |       13416      0.95%     99.99% |           0      0.00%     99.99% |          32      0.00%    100.00% |          66      0.00%    100.00% |           1      0.00%    100.00% (Unspecified)
system.ruby.m_missLatencyHistSeqr::total      1410579                       (Unspecified)
system.ruby.delayVCHist.vnet_0::bucket_size            1                       # delay histogram for vnet_0 (Unspecified)
system.ruby.delayVCHist.vnet_0::max_bucket            9                       # delay histogram for vnet_0 (Unspecified)
system.ruby.delayVCHist.vnet_0::samples       4231203                       # delay histogram for vnet_0 (Unspecified)
system.ruby.delayVCHist.vnet_0::mean         2.666077                       # delay histogram for vnet_0 (Unspecified)
system.ruby.delayVCHist.vnet_0::stdev        3.771028                       # delay histogram for vnet_0 (Unspecified)
system.ruby.delayVCHist.vnet_0           |     2821114     66.67%     66.67% |           0      0.00%     66.67% |           0      0.00%     66.67% |           0      0.00%     66.67% |           0      0.00%     66.67% |           0      0.00%     66.67% |           0      0.00%     66.67% |           0      0.00%     66.67% |     1410089     33.33%    100.00% |           0      0.00%    100.00% # delay histogram for vnet_0 (Unspecified)
system.ruby.delayVCHist.vnet_0::total         4231203                       # delay histogram for vnet_0 (Unspecified)
system.ruby.delayVCHist.vnet_1::bucket_size            1                       # delay histogram for vnet_1 (Unspecified)
system.ruby.delayVCHist.vnet_1::max_bucket            9                       # delay histogram for vnet_1 (Unspecified)
system.ruby.delayVCHist.vnet_1::samples       5609291                       # delay histogram for vnet_1 (Unspecified)
system.ruby.delayVCHist.vnet_1           |     5609291    100.00%    100.00% |           0      0.00%    100.00% |           0      0.00%    100.00% |           0      0.00%    100.00% |           0      0.00%    100.00% |           0      0.00%    100.00% |           0      0.00%    100.00% |           0      0.00%    100.00% |           0      0.00%    100.00% |           0      0.00%    100.00% # delay histogram for vnet_1 (Unspecified)
system.ruby.delayVCHist.vnet_1::total         5609291                       # delay histogram for vnet_1 (Unspecified)
system.ruby.delayVCHist.vnet_2::bucket_size            1                       # delay histogram for vnet_2 (Unspecified)
system.ruby.delayVCHist.vnet_2::max_bucket            9                       # delay histogram for vnet_2 (Unspecified)
system.ruby.delayVCHist.vnet_2::samples           138                       # delay histogram for vnet_2 (Unspecified)
system.ruby.delayVCHist.vnet_2           |         138    100.00%    100.00% |           0      0.00%    100.00% |           0      0.00%    100.00% |           0      0.00%    100.00% |           0      0.00%    100.00% |           0      0.00%    100.00% |           0      0.00%    100.00% |           0      0.00%    100.00% |           0      0.00%    100.00% |           0      0.00%    100.00% # delay histogram for vnet_2 (Unspecified)
system.ruby.delayVCHist.vnet_2::total             138                       # delay histogram for vnet_2 (Unspecified)
system.ruby.Directory_Controller.Fetch        1410579      0.00%      0.00% (Unspecified)
system.ruby.Directory_Controller.Data         1377578      0.00%      0.00% (Unspecified)
system.ruby.Directory_Controller.Memory_Data      1410579      0.00%      0.00% (Unspecified)
system.ruby.Directory_Controller.Memory_Ack      1377578      0.00%      0.00% (Unspecified)
system.ruby.Directory_Controller.CleanReplacement          233      0.00%      0.00% (Unspecified)
system.ruby.Directory_Controller.I.Fetch      1410579      0.00%      0.00% (Unspecified)
system.ruby.Directory_Controller.M.Data       1377578      0.00%      0.00% (Unspecified)
system.ruby.Directory_Controller.M.CleanReplacement          233      0.00%      0.00% (Unspecified)
system.ruby.Directory_Controller.IM.Memory_Data      1410579      0.00%      0.00% (Unspecified)
system.ruby.Directory_Controller.MI.Memory_Ack      1377578      0.00%      0.00% (Unspecified)
system.ruby.L1Cache_Controller.Load             13960      0.00%      0.00% (Unspecified)
system.ruby.L1Cache_Controller.Ifetch        12878945      0.00%      0.00% (Unspecified)
system.ruby.L1Cache_Controller.Store         11291065      0.00%      0.00% (Unspecified)
system.ruby.L1Cache_Controller.Inv                138      0.00%      0.00% (Unspecified)
system.ruby.L1Cache_Controller.L1_Replacement      1410186      0.00%      0.00% (Unspecified)
system.ruby.L1Cache_Controller.Data_Exclusive           99      0.00%      0.00% (Unspecified)
system.ruby.L1Cache_Controller.Data_all_Acks      1410480      0.00%      0.00% (Unspecified)
system.ruby.L1Cache_Controller.WB_Ack         1410184      0.00%      0.00% (Unspecified)
system.ruby.L1Cache_Controller.NP.Load             99      0.00%      0.00% (Unspecified)
system.ruby.L1Cache_Controller.NP.Ifetch           97      0.00%      0.00% (Unspecified)
system.ruby.L1Cache_Controller.NP.Store       1410341      0.00%      0.00% (Unspecified)
system.ruby.L1Cache_Controller.NP.Inv               2      0.00%      0.00% (Unspecified)
system.ruby.L1Cache_Controller.I.Ifetch            42      0.00%      0.00% (Unspecified)
system.ruby.L1Cache_Controller.S.Ifetch      12878806      0.00%      0.00% (Unspecified)
system.ruby.L1Cache_Controller.S.Inv              136      0.00%      0.00% (Unspecified)
system.ruby.L1Cache_Controller.S.L1_Replacement            2      0.00%      0.00% (Unspecified)
system.ruby.L1Cache_Controller.E.Load            8842      0.00%      0.00% (Unspecified)
system.ruby.L1Cache_Controller.E.Store              4      0.00%      0.00% (Unspecified)
system.ruby.L1Cache_Controller.E.L1_Replacement           95      0.00%      0.00% (Unspecified)
system.ruby.L1Cache_Controller.M.Load            5019      0.00%      0.00% (Unspecified)
system.ruby.L1Cache_Controller.M.Store        9880720      0.00%      0.00% (Unspecified)
system.ruby.L1Cache_Controller.M.L1_Replacement      1410089      0.00%      0.00% (Unspecified)
system.ruby.L1Cache_Controller.IS.Data_Exclusive           99      0.00%      0.00% (Unspecified)
system.ruby.L1Cache_Controller.IS.Data_all_Acks          139      0.00%      0.00% (Unspecified)
system.ruby.L1Cache_Controller.IM.Data_all_Acks      1410341      0.00%      0.00% (Unspecified)
system.ruby.L1Cache_Controller.M_I.WB_Ack      1410184      0.00%      0.00% (Unspecified)
system.ruby.L2Cache_Controller.L1_GET_INSTR          139      0.00%      0.00% (Unspecified)
system.ruby.L2Cache_Controller.L1_GETS             99      0.00%      0.00% (Unspecified)
system.ruby.L2Cache_Controller.L1_GETX        1410341      0.00%      0.00% (Unspecified)
system.ruby.L2Cache_Controller.L1_PUTX        1410184      0.00%      0.00% (Unspecified)
system.ruby.L2Cache_Controller.L2_Replacement      1377578      0.00%      0.00% (Unspecified)
system.ruby.L2Cache_Controller.L2_Replacement_clean          233      0.00%      0.00% (Unspecified)
system.ruby.L2Cache_Controller.Mem_Data       1410579      0.00%      0.00% (Unspecified)
system.ruby.L2Cache_Controller.Mem_Ack        1377811      0.00%      0.00% (Unspecified)
system.ruby.L2Cache_Controller.Ack_all            138      0.00%      0.00% (Unspecified)
system.ruby.L2Cache_Controller.Exclusive_Unblock      1410440      0.00%      0.00% (Unspecified)
system.ruby.L2Cache_Controller.NP.L1_GET_INSTR          139      0.00%      0.00% (Unspecified)
system.ruby.L2Cache_Controller.NP.L1_GETS           99      0.00%      0.00% (Unspecified)
system.ruby.L2Cache_Controller.NP.L1_GETX      1410341      0.00%      0.00% (Unspecified)
system.ruby.L2Cache_Controller.SS.L2_Replacement_clean          138      0.00%      0.00% (Unspecified)
system.ruby.L2Cache_Controller.M.L2_Replacement      1377578      0.00%      0.00% (Unspecified)
system.ruby.L2Cache_Controller.M.L2_Replacement_clean           95      0.00%      0.00% (Unspecified)
system.ruby.L2Cache_Controller.MT.L1_PUTX      1410184      0.00%      0.00% (Unspecified)
system.ruby.L2Cache_Controller.M_I.Mem_Ack      1377811      0.00%      0.00% (Unspecified)
system.ruby.L2Cache_Controller.I_I.Ack_all          138      0.00%      0.00% (Unspecified)
system.ruby.L2Cache_Controller.ISS.Mem_Data           99      0.00%      0.00% (Unspecified)
system.ruby.L2Cache_Controller.IS.Mem_Data          139      0.00%      0.00% (Unspecified)
system.ruby.L2Cache_Controller.IM.Mem_Data      1410341      0.00%      0.00% (Unspecified)
system.ruby.L2Cache_Controller.MT_MB.Exclusive_Unblock      1410440      0.00%      0.00% (Unspecified)
system.ruby.RequestType.LD.latency_hist_seqr::bucket_size           64                       (Unspecified)
system.ruby.RequestType.LD.latency_hist_seqr::max_bucket          639                       (Unspecified)
system.ruby.RequestType.LD.latency_hist_seqr::samples        13960                       (Unspecified)
system.ruby.RequestType.LD.latency_hist_seqr::mean     1.913109                       (Unspecified)
system.ruby.RequestType.LD.latency_hist_seqr::gmean     1.034762                       (Unspecified)
system.ruby.RequestType.LD.latency_hist_seqr::stdev    11.988943                       (Unspecified)
system.ruby.RequestType.LD.latency_hist_seqr |       13861     99.29%     99.29% |          80      0.57%     99.86% |          16      0.11%     99.98% |           0      0.00%     99.98% |           0      0.00%     99.98% |           0      0.00%     99.98% |           1      0.01%     99.99% |           1      0.01%     99.99% |           1      0.01%    100.00% |           0      0.00%    100.00% (Unspecified)
system.ruby.RequestType.LD.latency_hist_seqr::total        13960                       (Unspecified)
system.ruby.RequestType.LD.hit_latency_hist_seqr::bucket_size            1                       (Unspecified)
system.ruby.RequestType.LD.hit_latency_hist_seqr::max_bucket            9                       (Unspecified)
system.ruby.RequestType.LD.hit_latency_hist_seqr::samples        13861                       (Unspecified)
system.ruby.RequestType.LD.hit_latency_hist_seqr::mean            1                       (Unspecified)
system.ruby.RequestType.LD.hit_latency_hist_seqr::gmean            1                       (Unspecified)
system.ruby.RequestType.LD.hit_latency_hist_seqr |           0      0.00%      0.00% |       13861    100.00%    100.00% |           0      0.00%    100.00% |           0      0.00%    100.00% |           0      0.00%    100.00% |           0      0.00%    100.00% |           0      0.00%    100.00% |           0      0.00%    100.00% |           0      0.00%    100.00% |           0      0.00%    100.00% (Unspecified)
system.ruby.RequestType.LD.hit_latency_hist_seqr::total        13861                       (Unspecified)
system.ruby.RequestType.LD.miss_latency_hist_seqr::bucket_size           64                       (Unspecified)
system.ruby.RequestType.LD.miss_latency_hist_seqr::max_bucket          639                       (Unspecified)
system.ruby.RequestType.LD.miss_latency_hist_seqr::samples           99                       (Unspecified)
system.ruby.RequestType.LD.miss_latency_hist_seqr::mean   129.757576                       (Unspecified)
system.ruby.RequestType.LD.miss_latency_hist_seqr::gmean   123.782510                       (Unspecified)
system.ruby.RequestType.LD.miss_latency_hist_seqr::stdev    62.003965                       (Unspecified)
system.ruby.RequestType.LD.miss_latency_hist_seqr |           0      0.00%      0.00% |          80     80.81%     80.81% |          16     16.16%     96.97% |           0      0.00%     96.97% |           0      0.00%     96.97% |           0      0.00%     96.97% |           1      1.01%     97.98% |           1      1.01%     98.99% |           1      1.01%    100.00% |           0      0.00%    100.00% (Unspecified)
system.ruby.RequestType.LD.miss_latency_hist_seqr::total           99                       (Unspecified)
system.ruby.RequestType.ST.latency_hist_seqr::bucket_size          128                       (Unspecified)
system.ruby.RequestType.ST.latency_hist_seqr::max_bucket         1279                       (Unspecified)
system.ruby.RequestType.ST.latency_hist_seqr::samples     11290825                       (Unspecified)
system.ruby.RequestType.ST.latency_hist_seqr::mean    18.773079                       (Unspecified)
system.ruby.RequestType.ST.latency_hist_seqr::gmean     1.838829                       (Unspecified)
system.ruby.RequestType.ST.latency_hist_seqr::stdev    56.628913                       (Unspecified)
system.ruby.RequestType.ST.latency_hist_seqr |    11167020     98.90%     98.90% |       21836      0.19%     99.10% |       10902      0.10%     99.19% |       74647      0.66%     99.85% |        2905      0.03%     99.88% |       13416      0.12%    100.00% |           0      0.00%    100.00% |          32      0.00%    100.00% |          66      0.00%    100.00% |           1      0.00%    100.00% (Unspecified)
system.ruby.RequestType.ST.latency_hist_seqr::total     11290825                       (Unspecified)
system.ruby.RequestType.ST.hit_latency_hist_seqr::bucket_size            1                       (Unspecified)
system.ruby.RequestType.ST.hit_latency_hist_seqr::max_bucket            9                       (Unspecified)
system.ruby.RequestType.ST.hit_latency_hist_seqr::samples      9880484                       (Unspecified)
system.ruby.RequestType.ST.hit_latency_hist_seqr::mean            1                       (Unspecified)
system.ruby.RequestType.ST.hit_latency_hist_seqr::gmean            1                       (Unspecified)
system.ruby.RequestType.ST.hit_latency_hist_seqr |           0      0.00%      0.00% |     9880484    100.00%    100.00% |           0      0.00%    100.00% |           0      0.00%    100.00% |           0      0.00%    100.00% |           0      0.00%    100.00% |           0      0.00%    100.00% |           0      0.00%    100.00% |           0      0.00%    100.00% |           0      0.00%    100.00% (Unspecified)
system.ruby.RequestType.ST.hit_latency_hist_seqr::total      9880484                       (Unspecified)
system.ruby.RequestType.ST.miss_latency_hist_seqr::bucket_size          128                       (Unspecified)
system.ruby.RequestType.ST.miss_latency_hist_seqr::max_bucket         1279                       (Unspecified)
system.ruby.RequestType.ST.miss_latency_hist_seqr::samples      1410341                       (Unspecified)
system.ruby.RequestType.ST.miss_latency_hist_seqr::mean   143.286667                       (Unspecified)
system.ruby.RequestType.ST.miss_latency_hist_seqr::gmean   131.174577                       (Unspecified)
system.ruby.RequestType.ST.miss_latency_hist_seqr::stdev    89.198995                       (Unspecified)
system.ruby.RequestType.ST.miss_latency_hist_seqr |     1286536     91.22%     91.22% |       21836      1.55%     92.77% |       10902      0.77%     93.54% |       74647      5.29%     98.84% |        2905      0.21%     99.04% |       13416      0.95%     99.99% |           0      0.00%     99.99% |          32      0.00%    100.00% |          66      0.00%    100.00% |           1      0.00%    100.00% (Unspecified)
system.ruby.RequestType.ST.miss_latency_hist_seqr::total      1410341                       (Unspecified)
system.ruby.RequestType.IFETCH.latency_hist_seqr::bucket_size           32                       (Unspecified)
system.ruby.RequestType.IFETCH.latency_hist_seqr::max_bucket          319                       (Unspecified)
system.ruby.RequestType.IFETCH.latency_hist_seqr::samples     12878945                       (Unspecified)
system.ruby.RequestType.IFETCH.latency_hist_seqr::mean     1.001440                       (Unspecified)
system.ruby.RequestType.IFETCH.latency_hist_seqr::gmean     1.000053                       (Unspecified)
system.ruby.RequestType.IFETCH.latency_hist_seqr::stdev     0.447685                       (Unspecified)
system.ruby.RequestType.IFETCH.latency_hist_seqr |    12878806    100.00%    100.00% |           0      0.00%    100.00% |           0      0.00%    100.00% |          73      0.00%    100.00% |          22      0.00%    100.00% |          43      0.00%    100.00% |           0      0.00%    100.00% |           1      0.00%    100.00% |           0      0.00%    100.00% |           0      0.00%    100.00% (Unspecified)
system.ruby.RequestType.IFETCH.latency_hist_seqr::total     12878945                       (Unspecified)
system.ruby.RequestType.IFETCH.hit_latency_hist_seqr::bucket_size            1                       (Unspecified)
system.ruby.RequestType.IFETCH.hit_latency_hist_seqr::max_bucket            9                       (Unspecified)
system.ruby.RequestType.IFETCH.hit_latency_hist_seqr::samples     12878806                       (Unspecified)
system.ruby.RequestType.IFETCH.hit_latency_hist_seqr::mean            1                       (Unspecified)
system.ruby.RequestType.IFETCH.hit_latency_hist_seqr::gmean            1                       (Unspecified)
system.ruby.RequestType.IFETCH.hit_latency_hist_seqr |           0      0.00%      0.00% |    12878806    100.00%    100.00% |           0      0.00%    100.00% |           0      0.00%    100.00% |           0      0.00%    100.00% |           0      0.00%    100.00% |           0      0.00%    100.00% |           0      0.00%    100.00% |           0      0.00%    100.00% |           0      0.00%    100.00% (Unspecified)
system.ruby.RequestType.IFETCH.hit_latency_hist_seqr::total     12878806                       (Unspecified)
system.ruby.RequestType.IFETCH.miss_latency_hist_seqr::bucket_size           32                       (Unspecified)
system.ruby.RequestType.IFETCH.miss_latency_hist_seqr::max_bucket          319                       (Unspecified)
system.ruby.RequestType.IFETCH.miss_latency_hist_seqr::samples          139                       (Unspecified)
system.ruby.RequestType.IFETCH.miss_latency_hist_seqr::mean   134.467626                       (Unspecified)
system.ruby.RequestType.IFETCH.miss_latency_hist_seqr::gmean   131.841107                       (Unspecified)
system.ruby.RequestType.IFETCH.miss_latency_hist_seqr::stdev    27.604427                       (Unspecified)
system.ruby.RequestType.IFETCH.miss_latency_hist_seqr |           0      0.00%      0.00% |           0      0.00%      0.00% |           0      0.00%      0.00% |          73     52.52%     52.52% |          22     15.83%     68.35% |          43     30.94%     99.28% |           0      0.00%     99.28% |           1      0.72%    100.00% |           0      0.00%    100.00% |           0      0.00%    100.00% (Unspecified)
system.ruby.RequestType.IFETCH.miss_latency_hist_seqr::total          139                       (Unspecified)
system.ruby.RequestType.RMW_Read.latency_hist_seqr::bucket_size            1                       (Unspecified)
system.ruby.RequestType.RMW_Read.latency_hist_seqr::max_bucket            9                       (Unspecified)
system.ruby.RequestType.RMW_Read.latency_hist_seqr::samples          240                       (Unspecified)
system.ruby.RequestType.RMW_Read.latency_hist_seqr::mean            1                       (Unspecified)
system.ruby.RequestType.RMW_Read.latency_hist_seqr::gmean            1                       (Unspecified)
[...]
system.switch_cpus.numWorkItemsCompleted            0                       # Number of work items this cpu completed (Count)
system.switch_cpus.commitStats0.numInsts     10000000                       # Number of instructions committed (thread level) (Count)
system.switch_cpus.commitStats0.numOps       20001787                       # Number of ops (including micro ops) committed (thread level) (Count)
system.switch_cpus.commitStats0.numInstsNotNOP            0                       # Number of instructions committed excluding NOPs or prefetches (Count)
system.switch_cpus.commitStats0.numOpsNotNOP            0                       # Number of Ops (including micro ops) Simulated (Count)
system.switch_cpus.commitStats0.cpi         24.907195                       # CPI: cycles per instruction (thread level) ((Cycle/Count))
system.switch_cpus.commitStats0.ipc          0.040149                       # IPC: instructions per cycle (thread level) ((Count/Cycle))
system.switch_cpus.commitStats0.numMemRefs            0                       # Number of memory references committed (Count)
system.switch_cpus.commitStats0.numFpInsts     11302192                       # Number of float instructions (Count)
system.switch_cpus.commitStats0.numIntInsts     19996818                       # Number of integer instructions (Count)
system.switch_cpus.commitStats0.numLoadInsts        14200                       # Number of load instructions (Count)
system.switch_cpus.commitStats0.numStoreInsts     11312851                       # Number of store instructions (Count)
system.switch_cpus.commitStats0.numVecInsts            0                       # Number of vector instructions (Count)
system.switch_cpus.commitStats0.committedInstType::No_OpClass         4471      0.02%      0.02% # Class of committed instruction. (Count)
system.switch_cpus.commitStats0.committedInstType::IntAlu      8669196     43.34%     43.36% # Class of committed instruction. (Count)
system.switch_cpus.commitStats0.committedInstType::IntMult         1059      0.01%     43.37% # Class of committed instruction. (Count)
system.switch_cpus.commitStats0.committedInstType::IntDiv            0      0.00%     43.37% # Class of committed instruction. (Count)
system.switch_cpus.commitStats0.committedInstType::FloatAdd            1      0.00%     43.37% # Class of committed instruction. (Count)
system.switch_cpus.commitStats0.committedInstType::FloatCmp            0      0.00%     43.37% # Class of committed instruction. (Count)
system.switch_cpus.commitStats0.committedInstType::FloatCvt            0      0.00%     43.37% # Class of committed instruction. (Count)
system.switch_cpus.commitStats0.committedInstType::FloatMult            0      0.00%     43.37% # Class of committed instruction. (Count)
system.switch_cpus.commitStats0.committedInstType::FloatMultAcc            0      0.00%     43.37% # Class of committed instruction. (Count)
system.switch_cpus.commitStats0.committedInstType::FloatDiv            0      0.00%     43.37% # Class of committed instruction. (Count)
system.switch_cpus.commitStats0.committedInstType::FloatMisc            0      0.00%     43.37% # Class of committed instruction. (Count)
system.switch_cpus.commitStats0.committedInstType::FloatSqrt            0      0.00%     43.37% # Class of committed instruction. (Count)
system.switch_cpus.commitStats0.committedInstType::SimdAdd            0      0.00%     43.37% # Class of committed instruction. (Count)
system.switch_cpus.commitStats0.committedInstType::SimdAddAcc            0      0.00%     43.37% # Class of committed instruction. (Count)
system.switch_cpus.commitStats0.committedInstType::SimdAlu            2      0.00%     43.37% # Class of committed instruction. (Count)
system.switch_cpus.commitStats0.committedInstType::SimdCmp            0      0.00%     43.37% # Class of committed instruction. (Count)
system.switch_cpus.commitStats0.committedInstType::SimdCvt            0      0.00%     43.37% # Class of committed instruction. (Count)
system.switch_cpus.commitStats0.committedInstType::SimdMisc            7      0.00%     43.37% # Class of committed instruction. (Count)
system.switch_cpus.commitStats0.committedInstType::SimdMult            0      0.00%     43.37% # Class of committed instruction. (Count)
system.switch_cpus.commitStats0.committedInstType::SimdMultAcc            0      0.00%     43.37% # Class of committed instruction. (Count)
system.switch_cpus.commitStats0.committedInstType::SimdMatMultAcc            0      0.00%     43.37% # Class of committed instruction. (Count)
system.switch_cpus.commitStats0.committedInstType::SimdShift            0      0.00%     43.37% # Class of committed instruction. (Count)
system.switch_cpus.commitStats0.committedInstType::SimdShiftAcc            0      0.00%     43.37% # Class of committed instruction. (Count)
system.switch_cpus.commitStats0.committedInstType::SimdDiv            0      0.00%     43.37% # Class of committed instruction. (Count)
system.switch_cpus.commitStats0.committedInstType::SimdSqrt            0      0.00%     43.37% # Class of committed instruction. (Count)
system.switch_cpus.commitStats0.committedInstType::SimdFloatAdd            0      0.00%     43.37% # Class of committed instruction. (Count)
system.switch_cpus.commitStats0.committedInstType::SimdFloatAlu            0      0.00%     43.37% # Class of committed instruction. (Count)
system.switch_cpus.commitStats0.committedInstType::SimdFloatCmp            0      0.00%     43.37% # Class of committed instruction. (Count)
system.switch_cpus.commitStats0.committedInstType::SimdFloatCvt            0      0.00%     43.37% # Class of committed instruction. (Count)
system.switch_cpus.commitStats0.committedInstType::SimdFloatDiv            0      0.00%     43.37% # Class of committed instruction. (Count)
system.switch_cpus.commitStats0.committedInstType::SimdFloatMisc            0      0.00%     43.37% # Class of committed instruction. (Count)
system.switch_cpus.commitStats0.committedInstType::SimdFloatMult            0      0.00%     43.37% # Class of committed instruction. (Count)
system.switch_cpus.commitStats0.committedInstType::SimdFloatMultAcc            0      0.00%     43.37% # Class of committed instruction. (Count)
system.switch_cpus.commitStats0.committedInstType::SimdFloatMatMultAcc            0      0.00%     43.37% # Class of committed instruction. (Count)
system.switch_cpus.commitStats0.committedInstType::SimdFloatSqrt            0      0.00%     43.37% # Class of committed instruction. (Count)
system.switch_cpus.commitStats0.committedInstType::SimdReduceAdd            0      0.00%     43.37% # Class of committed instruction. (Count)
system.switch_cpus.commitStats0.committedInstType::SimdReduceAlu            0      0.00%     43.37% # Class of committed instruction. (Count)
system.switch_cpus.commitStats0.committedInstType::SimdReduceCmp            0      0.00%     43.37% # Class of committed instruction. (Count)
system.switch_cpus.commitStats0.committedInstType::SimdFloatReduceAdd            0      0.00%     43.37% # Class of committed instruction. (Count)
system.switch_cpus.commitStats0.committedInstType::SimdFloatReduceCmp            0      0.00%     43.37% # Class of committed instruction. (Count)
system.switch_cpus.commitStats0.committedInstType::SimdAes            0      0.00%     43.37% # Class of committed instruction. (Count)
system.switch_cpus.commitStats0.committedInstType::SimdAesMix            0      0.00%     43.37% # Class of committed instruction. (Count)
system.switch_cpus.commitStats0.committedInstType::SimdSha1Hash            0      0.00%     43.37% # Class of committed instruction. (Count)
system.switch_cpus.commitStats0.committedInstType::SimdSha1Hash2            0      0.00%     43.37% # Class of committed instruction. (Count)
system.switch_cpus.commitStats0.committedInstType::SimdSha256Hash            0      0.00%     43.37% # Class of committed instruction. (Count)
system.switch_cpus.commitStats0.committedInstType::SimdSha256Hash2            0      0.00%     43.37% # Class of committed instruction. (Count)
system.switch_cpus.commitStats0.committedInstType::SimdShaSigma2            0      0.00%     43.37% # Class of committed instruction. (Count)
system.switch_cpus.commitStats0.committedInstType::SimdShaSigma3            0      0.00%     43.37% # Class of committed instruction. (Count)
system.switch_cpus.commitStats0.committedInstType::SimdPredAlu            0      0.00%     43.37% # Class of committed instruction. (Count)
system.switch_cpus.commitStats0.committedInstType::Matrix            0      0.00%     43.37% # Class of committed instruction. (Count)
system.switch_cpus.commitStats0.committedInstType::MatrixMov            0      0.00%     43.37% # Class of committed instruction. (Count)
system.switch_cpus.commitStats0.committedInstType::MatrixOP            0      0.00%     43.37% # Class of committed instruction. (Count)
system.switch_cpus.commitStats0.committedInstType::MemRead        14164      0.07%     43.44% # Class of committed instruction. (Count)
system.switch_cpus.commitStats0.committedInstType::MemWrite        10706      0.05%     43.49% # Class of committed instruction. (Count)
system.switch_cpus.commitStats0.committedInstType::FloatMemRead           36      0.00%     43.49% # Class of committed instruction. (Count)
system.switch_cpus.commitStats0.committedInstType::FloatMemWrite     11302145     56.51%    100.00% # Class of committed instruction. (Count)
system.switch_cpus.commitStats0.committedInstType::IprAccess            0      0.00%    100.00% # Class of committed instruction. (Count)
system.switch_cpus.commitStats0.committedInstType::InstPrefetch            0      0.00%    100.00% # Class of committed instruction. (Count)
system.switch_cpus.commitStats0.committedInstType::VectorUnitStrideLoad            0      0.00%    100.00% # Class of committed instruction. (Count)
system.switch_cpus.commitStats0.committedInstType::VectorUnitStrideStore            0      0.00%    100.00% # Class of committed instruction. (Count)
system.switch_cpus.commitStats0.committedInstType::VectorUnitStrideMaskLoad            0      0.00%    100.00% # Class of committed instruction. (Count)
system.switch_cpus.commitStats0.committedInstType::VectorUnitStrideMaskStore            0      0.00%    100.00% # Class of committed instruction. (Count)
system.switch_cpus.commitStats0.committedInstType::VectorStridedLoad            0      0.00%    100.00% # Class of committed instruction. (Count)
system.switch_cpus.commitStats0.committedInstType::VectorStridedStore            0      0.00%    100.00% # Class of committed instruction. (Count)
system.switch_cpus.commitStats0.committedInstType::VectorIndexedLoad            0      0.00%    100.00% # Class of committed instruction. (Count)
system.switch_cpus.commitStats0.committedInstType::VectorIndexedStore            0      0.00%    100.00% # Class of committed instruction. (Count)
system.switch_cpus.commitStats0.committedInstType::VectorUnitStrideFaultOnlyFirstLoad            0      0.00%    100.00% # Class of committed instruction. (Count)
system.switch_cpus.commitStats0.committedInstType::VectorWholeRegisterLoad            0      0.00%    100.00% # Class of committed instruction. (Count)
system.switch_cpus.commitStats0.committedInstType::VectorWholeRegisterStore            0      0.00%    100.00% # Class of committed instruction. (Count)
system.switch_cpus.commitStats0.committedInstType::VectorIntegerArith            0      0.00%    100.00% # Class of committed instruction. (Count)
system.switch_cpus.commitStats0.committedInstType::VectorFloatArith            0      0.00%    100.00% # Class of committed instruction. (Count)
system.switch_cpus.commitStats0.committedInstType::VectorFloatConvert            0      0.00%    100.00% # Class of committed instruction. (Count)
system.switch_cpus.commitStats0.committedInstType::VectorIntegerReduce            0      0.00%    100.00% # Class of committed instruction. (Count)
system.switch_cpus.commitStats0.committedInstType::VectorFloatReduce            0      0.00%    100.00% # Class of committed instruction. (Count)
system.switch_cpus.commitStats0.committedInstType::VectorMisc            0      0.00%    100.00% # Class of committed instruction. (Count)
system.switch_cpus.commitStats0.committedInstType::VectorIntegerExtension            0      0.00%    100.00% # Class of committed instruction. (Count)
system.switch_cpus.commitStats0.committedInstType::VectorConfig            0      0.00%    100.00% # Class of committed instruction. (Count)
system.switch_cpus.commitStats0.committedInstType::total     20001787                       # Class of committed instruction. (Count)
system.switch_cpus.commitStats0.committedControl::IsControl      1442130                       # Class of control type instructions committed (Count)
system.switch_cpus.commitStats0.committedControl::IsDirectControl      1442090                       # Class of control type instructions committed (Count)
system.switch_cpus.commitStats0.committedControl::IsIndirectControl           40                       # Class of control type instructions committed (Count)
system.switch_cpus.commitStats0.committedControl::IsCondControl      1441108                       # Class of control type instructions committed (Count)
system.switch_cpus.commitStats0.committedControl::IsUncondControl         1022                       # Class of control type instructions committed (Count)
system.switch_cpus.commitStats0.committedControl::IsCall           39                       # Class of control type instructions committed (Count)
system.switch_cpus.commitStats0.committedControl::IsReturn           39                       # Class of control type instructions committed (Count)
system.switch_cpus.exec_context.thread_0.numMatAluAccesses            0                       # Number of matrix alu accesses (Count)
system.switch_cpus.exec_context.thread_0.numCallsReturns           78                       # Number of times a function call or return occured (Count)
system.switch_cpus.exec_context.thread_0.numMatInsts            0                       # Number of matrix instructions (Count)
system.switch_cpus.exec_context.thread_0.numIdleCycles            0                       # Number of idle cycles (Cycle)
system.switch_cpus.exec_context.thread_0.numBusyCycles    249071951                       # Number of busy cycles (Cycle)
system.switch_cpus.exec_context.thread_0.notIdleFraction            1                       # Percentage of non-idle cycles (Ratio)
system.switch_cpus.exec_context.thread_0.idleFraction            0                       # Percentage of idle cycles (Ratio)
system.switch_cpus.executeStats0.numInsts            0                       # Number of executed instructions (Count)
system.switch_cpus.executeStats0.numNop             0                       # Number of nop insts executed (Count)
system.switch_cpus.executeStats0.numBranches            0                       # Number of branches executed (Count)
system.switch_cpus.executeStats0.numLoadInsts            0                       # Number of load instructions executed (Count)
system.switch_cpus.executeStats0.numStoreInsts     11327051                       # Number of stores executed (Count)
system.switch_cpus.executeStats0.instRate            0                       # Inst execution rate ((Count/Cycle))
system.switch_cpus.executeStats0.numFpAluAccesses     11302192                       # Number of float alu accesses (Count)
system.switch_cpus.executeStats0.numFpRegReads     11302166                       # Number of times the floating registers were read (Count)
system.switch_cpus.executeStats0.numFpRegWrites           47                       # Number of times the floating registers were written (Count)
system.switch_cpus.executeStats0.numIntAluAccesses     19996818                       # Number of integer alu accesses (Count)
system.switch_cpus.executeStats0.numIntRegReads     20052157                       # Number of times the integer registers were read (Count)
system.switch_cpus.executeStats0.numIntRegWrites      5801924                       # Number of times the integer registers were written (Count)
system.switch_cpus.executeStats0.numMemRefs     11327051                       # Number of memory refs (Count)
system.switch_cpus.executeStats0.numMiscRegReads     14210536                       # Number of times the Misc registers were read (Count)
system.switch_cpus.executeStats0.numVecAluAccesses            0                       # Number of vector alu accesses (Count)
system.switch_cpus.executeStats0.numDiscardedOps            0                       # Number of ops (including micro ops) which were discarded before commit (Count)
system.switch_cpus.fetchStats0.numInsts      10000000                       # Number of instructions fetched (thread level) (Count)
system.switch_cpus.fetchStats0.numOps        20001787                       # Number of ops (including micro ops) fetched (thread level) (Count)
system.switch_cpus.fetchStats0.fetchRate     0.040149                       # Number of inst fetches per cycle ((Count/Cycle))
system.switch_cpus.fetchStats0.numBranches      1442130                       # Number of branches fetched (Count)
system.switch_cpus.fetchStats0.branchRate     0.005790                       # Number of branch fetches per cycle (Ratio)
system.switch_cpus.fetchStats0.numFetchSuspends            0                       # Number of times Execute suspended instruction fetching (Count)
system.switch_cpus.mmu.dtb.rdAccesses           14200                       # TLB accesses on read requests (Count)
system.switch_cpus.mmu.dtb.wrAccesses        11312856                       # TLB accesses on write requests (Count)
system.switch_cpus.mmu.dtb.rdMisses                 8                       # TLB misses on read requests (Count)
system.switch_cpus.mmu.dtb.wrMisses             44075                       # TLB misses on write requests (Count)
system.switch_cpus.mmu.dtb.walker.power_state.pwrStateResidencyTicks::UNDEFINED 125567122000                       # Cumulative time (in ticks) in various power states (Tick)
system.switch_cpus.mmu.itb.rdAccesses               0                       # TLB accesses on read requests (Count)
system.switch_cpus.mmu.itb.wrAccesses        12878947                       # TLB accesses on write requests (Count)
system.switch_cpus.mmu.itb.rdMisses                 0                       # TLB misses on read requests (Count)
system.switch_cpus.mmu.itb.wrMisses                11                       # TLB misses on write requests (Count)
system.switch_cpus.mmu.itb.walker.power_state.pwrStateResidencyTicks::UNDEFINED 125567122000                       # Cumulative time (in ticks) in various power states (Tick)
system.switch_cpus.power_state.pwrStateResidencyTicks::OFF 125567122000                       # Cumulative time (in ticks) in various power states (Tick)
system.switch_cpus.thread_0.numInsts                0                       # Number of Instructions committed (Count)
system.switch_cpus.thread_0.numOps                  0                       # Number of Ops committed (Count)
system.switch_cpus.thread_0.numMemRefs              0                       # Number of Memory References (Count)
system.sys_port_proxy.power_state.pwrStateResidencyTicks::UNDEFINED 125567122000                       # Cumulative time (in ticks) in various power states (Tick)
system.voltage_domain.voltage                       1                       # Voltage in Volts (Volt)
system.workload.inst.arm                            0                       # number of arm instructions executed (Count)
system.workload.inst.quiesce                        0                       # number of quiesce instructions executed (Count)

---------- End Simulation Statistics   ----------
